LTspice 24.0.12 for Windows
Circuit: * D:\OneDrive - Indian Institute of Technology Bombay\1.M.Tech 3rd Sem\MTP_Design and Development of LLC Resonant Converter for EV Charging\MTP_MyMaterial\LLC\LtSpice\LLC\HalfBridge_LLC_TI.asc
Start Time: Tue Oct 28 17:13:39 2025
solver = Normal
Maximum thread count: 20
tnom = 27
temp = 27
method = modified trap
Direct Newton iteration for .op point succeeded.
Heightened Def Con from 3.23977e-08 to 3.63977e-08
Heightened Def Con from 4.49814e-08 to 4.79814e-08
Total elapsed time: 6.567 seconds.

